Version 4
SHEET 1 880 680
WIRE 256 160 256 96
WIRE 224 176 192 176
WIRE 304 192 288 192
WIRE 320 192 304 192
WIRE 448 192 400 192
WIRE 48 208 -176 208
WIRE 128 208 112 208
WIRE 224 208 128 208
WIRE 128 240 128 208
WIRE -176 272 -176 208
WIRE 256 272 256 224
WIRE 192 320 192 176
WIRE 208 320 192 320
WIRE 304 320 304 192
WIRE 304 320 288 320
WIRE -384 384 -384 352
WIRE -288 384 -288 352
WIRE -176 384 -176 352
WIRE 128 400 128 320
WIRE 192 400 128 400
WIRE 272 400 192 400
WIRE 400 400 400 256
WIRE 400 400 272 400
WIRE 272 448 272 400
FLAG 448 192 Vout
IOPIN 448 192 Out
FLAG -288 384 0
FLAG -176 384 0
FLAG 256 96 VDD
IOPIN 256 96 BiDir
FLAG -384 272 agnd
FLAG -384 384 0
FLAG 272 448 agnd
FLAG -288 272 VDD
IOPIN -288 272 BiDir
FLAG 256 272 0
SYMBOL res 144 336 R180
WINDOW 0 36 76 Left 2
WINDOW 3 36 40 Left 2
SYMATTR InstName R1
SYMATTR Value 16k
SYMBOL res 416 176 R90
WINDOW 0 0 56 VBottom 2
WINDOW 3 32 56 VTop 2
SYMATTR InstName R2
SYMATTR Value 16k
SYMBOL cap 112 192 R90
WINDOW 0 0 32 VBottom 2
WINDOW 3 32 32 VTop 2
SYMATTR InstName C1
SYMATTR Value 100n
SYMBOL cap 416 256 R180
WINDOW 0 24 56 Left 2
WINDOW 3 -54 13 Left 2
SYMATTR InstName C2
SYMATTR Value 1n
SYMBOL res 176 304 R0
SYMATTR InstName R4
SYMATTR Value 3.3k
SYMBOL TL072 256 128 R0
SYMATTR InstName U1
SYMBOL res 304 304 R90
WINDOW 0 0 56 VBottom 2
WINDOW 3 20 9 VTop 2
SYMATTR InstName R3
SYMATTR Value 33k
SYMBOL voltage -176 256 R0
WINDOW 123 24 124 Left 2
WINDOW 39 0 0 Left 0
SYMATTR Value2 AC 1
SYMATTR InstName V1
SYMATTR Value SINE(2.5 0.5 2.5k)
SYMBOL voltage -288 256 R0
WINDOW 123 0 0 Left 0
WINDOW 39 0 0 Left 0
SYMATTR InstName V2
SYMATTR Value 5
SYMBOL voltage -384 256 R0
WINDOW 123 0 0 Left 0
WINDOW 39 0 0 Left 0
SYMATTR InstName V4
SYMATTR Value 2.5
TEXT -322 508 Left 2 !.ac dec 101 10 1e6
