Version 4
SHEET 1 1104 680
WIRE 752 176 752 128
WIRE 864 176 864 112
WIRE 752 320 752 256
WIRE 864 320 864 256
WIRE 576 368 576 336
WIRE 496 432 448 432
WIRE 576 528 576 496
FLAG 752 128 VDD
IOPIN 752 128 In
FLAG 752 320 0
FLAG 864 112 outpr
IOPIN 864 112 In
FLAG 864 320 0
FLAG 576 336 VDD
IOPIN 576 336 In
FLAG 448 432 outpr
IOPIN 448 432 In
FLAG 576 528 0
SYMBOL voltage 752 160 R0
WINDOW 123 0 0 Left 0
WINDOW 39 0 0 Left 0
SYMATTR InstName VDD
SYMATTR Value 5
SYMBOL voltage 864 160 R0
WINDOW 123 24 124 Left 2
WINDOW 39 0 0 Left 0
SYMATTR InstName V1
SYMATTR Value SINE(2.5 0.5 2.5k)
SYMATTR Value2 AC 1
SYMBOL filtre_pass_band2 576 432 R0
SYMATTR InstName X1
TEXT 158 408 Left 2 !.ac dec 101 10 1e6
